# {{.ProjectName}} - ANSYS Simulation Project

> Generated by **AIStudio EngStudio** — Engineering Workflow Intelligent Studio

## Project Overview

| Property | Value |
|----------|-------|
| **Project Name** | {{.ProjectName}} |
| **Workflow** | {{.WorkflowName}} |
| **Target Platform** | ANSYS {{.Version}} |
| **Generated** | {{.Target}} |

## Directory Structure

```
{{.ProjectName}}/
├── workbench.wbpj          # ANSYS Workbench project file
├── journal.wbjn            # Workbench Python journal (auto-run script)
├── mechanical/
│   └── model.dat           # Mechanical APDL input file
├── scripts/
│   ├── mesh.apdl           # Mesh generation script
│   ├── solve.apdl          # Solver configuration
│   └── post.apdl           # Post-processing script
├── results/                # Simulation output files
├── .aistudio/
│   └── workflow.json       # Original workflow definition
└── README.md
```

## Getting Started

### Prerequisites

- **ANSYS Workbench** 2023 R2 or later
- ANSYS Mechanical APDL license
- (Optional) ANSYS Fluent license for CFD simulations

### Open in ANSYS Workbench

1. Launch **ANSYS Workbench**
2. **File → Open** → Select `workbench.wbpj`
3. Review and update material properties, boundary conditions
4. Click **Solve** to run the analysis

### Using Journal (Automated)

1. Launch ANSYS Workbench
2. **File → Scripting → Run Journal**
3. Select `journal.wbjn`
4. The journal will automatically set up and execute the simulation

### Manual APDL Execution

```bash
# From command line
ansys231 -b -i mechanical/model.dat -o results/solver.out
```

## Nodes in this Simulation

| Node | Type | Script |
|------|------|--------|
{{range .Nodes}}
| {{.Name}} | {{.Type}} | {{.ScriptName}} |
{{end}}

## Execution Steps

{{range $i, $exec := .Executions}}
{{add $i 1}}. **{{$exec.NodeName}}** (`{{$exec.NodeType}}`)
   - Script: `{{$exec.ScriptName}}`
   {{if $exec.DependsOn}}- Depends on: {{join $exec.DependsOn ", "}}{{end}}
{{end}}

## Notes

- Make sure all material properties are verified before running
- Large models may require significant computational resources
- Check `results/` directory for simulation outputs
- Modify boundary conditions in `mechanical/model.dat` as needed

---

*Generated by AIStudio EngStudio — Engineering Workflow Automation Platform*
